Grids_and_profiles/grids/grid.raw
0,   100.00, 32, 0, 0, 50.00        / PSS/E-32.0
Project(1)-Study Case
PowerFactory 15.1.7  Date: 4/25/2021, Time: 7:23:04 PM
     1,'Terminal    ',  21.0000,3,   1,   1,   1,1.00000,   0.0000
     2,'Terminal(1) ',   0.4200,1,   1,   1,   1,0.99977,   0.0013
     3,'Terminal(2) ',   0.4200,1,   1,   1,   1,0.99977,   0.0012
     4,'Terminal(3) ',   0.4200,1,   1,   1,   1,0.99977,   0.0011
0 / END OF BUS DATA, BEGIN LOAD DATA
     4,'1 ',1,   1,   1,     0.000,     0.000,     0.000,     0.000,     0.000,     0.000,   1,1
0 / END OF LOAD DATA, BEGIN FIXED SHUNT DATA
0 / END OF FIXED SHUNT DATA, BEGIN GENERATOR DATA
     1,'1 ',     0.000,     0.002,  1818.182, -1818.182,1.00000,     0,  1818.182,0.00000E+00,1.00000E+00,0.00000E+00,0.00000E+00,1.00000,1,  100.0,  9999.000, -9999.000,   1,1.0000,   0,1.0000,   0,1.0000,   0,1.0000,0, 1.0000
0 / END OF GENERATOR DATA, BEGIN BRANCH DATA
     2,     3,'1 ',4.86395E+01,1.01020E+01,   0.00000,    0.20,    0.20,    0.20,  0.00000,  0.00000,  0.00000,  0.00000,1,1,   0.22
     3,     4,'1 ',2.21088E+01,4.59184E+00,   0.00000,    0.20,    0.20,    0.20,  0.00000,  0.00000,  0.00000,  0.00000,1,1,   0.10
0 / END OF BRANCH DATA, BEGIN TRANSFORMER DATA
     1,     2,     0,'1 ',1,1,1,2.70000E-06,-2.48538E-05,2,'2-Winding Tr',1
3.76000E+00,1.80117E+01,     0.25
1.00000,   0.000,   0.000,     0.25,     0.25,     0.25, 0,      0, 1.00000, 1.00000, 1.10000, 0.90000,   2, 0, 0.00000, 0.00000
1.00000,   0.000
0 / END OF TRANSFORMER DATA, BEGIN AREA DATA
   1,     0,     0.000,    10.000,'Grid        '
0 / END OF AREA DATA, BEGIN TWO-TERMINAL DC DATA
0 / END OF TWO-TERMINAL DC DATA, BEGIN VSC DC LINE DATA
0 / END OF VSC DC LINE DATA, BEGIN IMPEDANCE CORRECTION DATA
0 / END OF IMPEDANCE CORRECTION DATA, BEGIN MULTI-TERMINAL DC DATA
0 / END OF MULTI-TERMINAL DC DATA, BEGIN MULTI-SECTION LINE DATA
0 / END OF MULTI-SECTION LINE DATA, BEGIN ZONE DATA
   1,'ZONE 1      '
0 / END OF ZONE DATA, BEGIN INTER-AREA TRANSFER DATA
0 / END OF INTER-AREA TRANSFER DATA, BEGIN OWNER DATA
   1,'OWNER 1    '
0 / END OF OWNER DATA, BEGIN FACTS DEVICE DATA
0 / END OF FACTS DEVICE DATA, BEGIN SWITCHED SHUNT DATA
0 / END OF SWITCHED SHUNT DATA, BEGIN GNE DATA
0 / END OF GNE DATA
Q